Circuit: * C:\Users\Client\Documents\Derdejaar\E- design 344\Github Repo\E344\LTSpice\Assessment 1 Design.asc

Direct Newton iteration failed to find .op point.  (Use ".option noopiter" to skip.)
Starting Gmin stepping
Gmin = 10
vernier = 0.5
vernier = 0.25
vernier = 0.125
Gmin = 5.5165
vernier = 0.0625
vernier = 0.03125
vernier = 0.015625
vernier = 0.0078125
Gmin = 5.49501
vernier = 0.00390625
vernier = 0.00195313
vernier = 0.000976563
vernier = 0.000488281
Gmin = 5.50104
Gmin = 0
Gmin stepping failed

Starting source stepping with srcstepmethod=0
Source Step = 3.0303%
vernier = 0.25
Source Step = 1.70455%
Source Step = 3.59848%
Source Step = 5.49242%
Source Step = 7.38636%
Source Step = 9.2803%
vernier = 0.09375
Source Step = 11.9318%
Source Step = 14.7727%
Source Step = 17.6136%
Source Step = 20.4545%
Source Step = 23.2955%
vernier = 0.140625
Source Step = 27.1307%
Source Step = 31.392%
Source Step = 35.6534%
Source Step = 39.9148%
Source Step = 44.1761%
vernier = 0.210938
Source Step = 49.7159%
Source Step = 56.108%
Source Step = 62.5%
Source Step = 68.892%
Source Step = 75.2841%
vernier = 0.316406
Source Step = 83.2741%
Source Step = 83.555%
Source Step = 83.5925%
Source Step = 83.63%
Source Step = 83.6674%
Source Step = 83.7049%
Source Step = 83.7423%
vernier = 0.00185394
Source Step = 83.7873%
Source Step = 83.8434%
Source Step = 83.8996%
Source Step = 83.9558%
Source Step = 84.012%
vernier = 0.00278091
Source Step = 84.0766%
Source Step = 84.1609%
Source Step = 84.2451%
Source Step = 84.3294%
Source Step = 84.4137%
vernier = 0.00417137
Source Step = 84.5064%
Source Step = 84.6328%
Source Step = 84.7592%
Source Step = 84.8856%
Source Step = 85.012%
vernier = 0.00625706
Source Step = 85.1447%
Source Step = 85.3343%
Source Step = 85.5239%
Source Step = 85.7135%
Source Step = 85.9031%
Source Step = 86.0927%
vernier = 0.00938559
Source Step = 86.3772%
Source Step = 86.6616%
Source Step = 86.946%
Source Step = 87.2304%
Source Step = 87.5148%
vernier = 0.0140784
Source Step = 87.9272%
Source Step = 88.3538%
Source Step = 88.7804%
Source Step = 89.2071%
Source Step = 89.6337%
vernier = 0.0211176
Source Step = 90.2309%
Source Step = 90.3229%
Source Step = 90.3629%
Source Step = 90.4029%
Source Step = 90.4429%
Source Step = 90.4829%
Source Step = 90.5229%
Source Step = 90.5629%
Source Step = 90.6029%
Source Step = 90.6429%
Source Step = 90.6829%
Source Step = 90.7229%
Source Step = 90.7629%
Source Step = 90.8029%
Source Step = 90.8429%
Source Step = 90.8829%
Source Step = 90.9229%
Source Step = 90.9629%
Source Step = 91.0029%
Source Step = 91.0428%
Source Step = 91.0828%
Source Step = 91.1228%
Source Step = 91.1628%
Source Step = 91.2028%
Source Step = 91.2428%
Source Step = 91.2828%
Source Step = 91.3228%
Source Step = 91.3628%
Source Step = 91.4028%
Source Step = 91.4428%
Source Step = 91.4828%
Source Step = 91.5228%
Source Step = 91.5628%
Source Step = 91.6028%
Source Step = 91.6428%
Source Step = 91.6828%
Source Step = 91.7228%
Source Step = 91.7628%
Source Step = 91.8028%
Source Step = 91.8428%
Source Step = 91.8827%
Source Step = 91.9227%
Source Step = 91.9627%
Source Step = 92.0027%
Source Step = 92.0427%
Source Step = 92.0827%
Source Step = 92.1227%
Source Step = 92.1627%
Source Step = 92.2027%
Source Step = 92.2427%
Source Step = 92.2827%
Source Step = 92.3227%
Source Step = 92.3627%
Source Step = 92.4027%
Source Step = 92.4427%
Source Step = 92.4827%
Source Step = 92.5227%
Source Step = 92.5627%
Source Step = 92.6027%
Source Step = 92.6427%
Source Step = 92.6827%
Source Step = 92.7227%
Source Step = 92.7626%
Source Step = 92.8026%
Source Step = 92.8426%
Source Step = 92.8826%
Source Step = 92.9226%
Source Step = 92.9626%
Source Step = 93.0026%
Source Step = 93.0426%
Source Step = 93.0826%
Source Step = 93.1226%
Source Step = 93.1626%
Source Step = 93.2026%
Source Step = 93.2426%
Source Step = 93.2826%
Source Step = 93.3226%
Source Step = 93.3626%
Starting source stepping with srcstepmethod=1
Source Step = 3.0303%
Source Step = 16.6667%
Source Step = 17.4716%
Source Step = 17.5663%
Source stepping failed

Pseudo transient terminated at 102.56 s, solution accepted ready or not!

Date: Sun Aug 16 19:00:24 2020
Total elapsed time: 13.434 seconds.

tnom = 27
temp = 27
method = trap
totiter = 68348
traniter = 0
tranpoints = 0
accept = 0
rejected = 213
matrix size = 193
fillins = 457
solver = Normal
Matrix Compiler1: 37.59 KB object code size  9.0/5.0/[4.8]
Matrix Compiler2: 24.35 KB object code size  3.9/6.0/[2.1]

