Circuit: * C:\Users\Client\Documents\Derdejaar\E- design 344\Github Repo\E344\LTSpice\Lowpass Filter.asc

.OP point found by inspection.

Date: Sun Aug 16 18:40:50 2020
Total elapsed time: 0.049 seconds.

tnom = 27
temp = 27
method = modified trap
totiter = 2086
traniter = 2086
tranpoints = 1044
accept = 1044
rejected = 0
matrix size = 4
fillins = 0
solver = Normal
Matrix Compiler1:       6 opcodes  0.1/[0.0]/0.1
Matrix Compiler2: 248 bytes object code size  0.1/0.1/[0.1]

