Circuit: * C:\Users\Client\Documents\Derdejaar\E- design 344\Github Repo\E344\LTSpice\Voltage Regulators.asc

Questionable use of curly braces in "b§e_abmgate yint 0 v={if(v(a)>{{vthresh}}&v(b)>{{vthresh}},{{vdd}},{{vss}})}"
    Error: undefined symbol in: "if([v](a)>((vthresh))&v(b)>((vthresh)),((vdd)),((vss)))"
Questionable use of curly braces in "b§e_abmgate yint 0 v={if(v(a)>{{vthresh}}|v(b)>{{vthresh}}|v(c)>{{vthresh}},{{vdd}},{{vss}})}"
    Error: undefined symbol in: "if([v](a)>((vthresh))|v(b)>((vthresh))|v(c)>((vthresh)),((vdd)),((vss)))"
Questionable use of curly braces in "b§e_abmgate yint 0 v={if(v(a)>{{vthresh}},{{vdd}},{{vss}})}"
    Error: undefined symbol in: "if([v](a)>((vthresh)),((vdd)),((vss)))"
WARNING: Less than two connections to node NC_01.  This node is used by R:U2:_R7.
Direct Newton iteration failed to find .op point.  (Use ".option noopiter" to skip.)
Starting Gmin stepping
Gmin = 10
Gmin = 1.07374
Gmin = 0.115292
Gmin = 0.0123794
Gmin = 0.00132923
Gmin = 0.000142725
Gmin = 1.5325e-005
vernier = 0.5
vernier = 0.25
vernier = 0.125
Gmin = 8.67208e-006
vernier = 0.166667
vernier = 0.222222
Gmin = 5.59685e-006
vernier = 0.296296
vernier = 0.395061
Gmin = 2.82092e-006
vernier = 0.526748
Gmin = 9.48929e-007
vernier = 0.702331
vernier = 0.936441
Gmin = 1.69015e-007
vernier = 1
Gmin = 1.88579e-008
Gmin = 2.02486e-009
Gmin = 2.17417e-010
Gmin = 2.3345e-011
Gmin = 2.50665e-012
Gmin = 2.69149e-013
Gmin = 0
Gmin stepping succeeded in finding the operating point.

Ignoring empty pin current: Ix(u2:fb)
Ignoring empty pin current: Ix(u2:fb)
Changing Tseed to 2.92969e-010

pin: AVG(-v(in)*i(v2))=9.36952e-005 FROM 0 TO 0.003
pout: AVG(v(out)*i(rload))=0.392616 FROM 0 TO 0.003
eff: pout/pin=4190.35


Date: Sun Aug 16 20:48:21 2020
Total elapsed time: 26.466 seconds.

tnom = 27
temp = 27
method = modified trap
totiter = 932485
traniter = 931581
tranpoints = 293769
accept = 218162
rejected = 75606
matrix size = 132
fillins = 108
solver = Normal
Thread vector: 16.8/12.4[2] 4.4/3.5[2] 12.9/6.7[2] 0.8/1.8[1]  2592/500
Matrix Compiler1: 11.12 KB object code size  2.8/1.8/[0.7]
Matrix Compiler2: 11.18 KB object code size  3.4/3.0/[1.3]

