Circuit: * C:\Users\Client\Documents\Derdejaar\E- design 344\Github Repo\E344\LTSpice\Working Amplifier.asc

Direct Newton iteration failed to find .op point.  (Use ".option noopiter" to skip.)
Starting Gmin stepping
Gmin = 10
vernier = 0.5
vernier = 0.25
vernier = 0.125
Gmin = 5.5165
vernier = 0.0625
vernier = 0.03125
vernier = 0.015625
vernier = 0.0078125
Gmin = 5.49501
vernier = 0.00390625
vernier = 0.00195313
vernier = 0.000976563
vernier = 0.000488281
Gmin = 5.50104
Gmin = 0
Gmin stepping failed

Starting source stepping with srcstepmethod=0
Source Step = 3.0303%
vernier = 0.25
Source Step = 1.70455%
Source Step = 3.59848%
Source Step = 5.49242%
Source Step = 7.38636%
Source Step = 9.2803%
vernier = 0.09375
Source Step = 11.9318%
Source Step = 14.7727%
Source Step = 17.6136%
Source Step = 20.4545%
Source Step = 23.2955%
vernier = 0.140625
Source Step = 27.1307%
Source Step = 31.392%
Source Step = 35.6534%
Source Step = 39.9148%
Source Step = 44.1761%
vernier = 0.210938
Source Step = 49.7159%
Source Step = 56.108%
Source Step = 62.5%
Source Step = 68.892%
Source Step = 72.927%
Source Step = 73.0768%
Source Step = 73.1767%
Source Step = 73.2766%
Source Step = 73.3765%
Source Step = 73.4763%
vernier = 0.00494385
Source Step = 73.6062%
Source Step = 73.756%
Source Step = 73.9058%
Source Step = 74.0556%
Source Step = 74.2054%
vernier = 0.00741577
Source Step = 74.3927%
Source Step = 74.6174%
Source Step = 74.8421%
Source Step = 75.0669%
Source Step = 75.2916%
vernier = 0.0111237
Source Step = 75.5612%
Source Step = 75.8983%
Source Step = 76.2354%
Source Step = 76.5725%
Source Step = 76.9096%
vernier = 0.0166855
Source Step = 77.2972%
Source Step = 77.8028%
Source Step = 78.3085%
Source Step = 78.8141%
Source Step = 79.3197%
vernier = 0.0250282
Source Step = 79.8759%
Source Step = 80.6343%
Source Step = 81.3927%
Source Step = 82.1512%
Source Step = 82.9096%
vernier = 0.0375423
Source Step = 83.706%
Source Step = 84.8436%
Source Step = 85.9812%
Source Step = 87.1189%
Source Step = 88.2565%
Source Step = 89.3942%
vernier = 0.0563135
Source Step = 91.1007%
Source Step = 92.8071%
Source Step = 94.5136%
Source Step = 96.2201%
Source Step = 97.9265%
vernier = 0.0844703
Source stepping succeeded in finding the operating point.

Changing Tseed to 9.76562e-009

Date: Sun Aug 16 18:31:37 2020
Total elapsed time: 1.716 seconds.

tnom = 27
temp = 27
method = modified trap
totiter = 7468
traniter = 3502
tranpoints = 1328
accept = 1235
rejected = 92
matrix size = 161
fillins = 310
solver = Normal
Thread vector: 26.8/9.0[3] 6.3/3.3[3] 6.5/2.8[3] 1.6/2.9[1]  2592/500
Matrix Compiler1: 26.32 KB object code size  12.9/7.1/[3.7]
Matrix Compiler2: 18.58 KB object code size  7.0/7.6/[1.9]

