Circuit: * C:\Users\Client\Documents\Derdejaar\E- design 344\Github Repo\E344\LTSpice\Gouws_21905541_A1.asc

Early termination of direct N-R iteration.
Direct Newton iteration failed to find .op point.  (Use ".option noopiter" to skip.)
Starting Gmin stepping
Increasing initial diagonal Gmin to 100
Gmin = 100
vernier = 0.5
vernier = 0.25
Gmin = 30.8405
vernier = 0.125
vernier = 0.0625
vernier = 0.03125
vernier = 0.015625
vernier = 0.0078125
Gmin = 32.7041
vernier = 0.00390625
vernier = 0.00195313
vernier = 0.000976563
vernier = 0.000488281
Gmin = 32.74
Gmin = 0
Gmin stepping failed

Starting source stepping with srcstepmethod=0
Source Step = 3.0303%
vernier = 0.25
Source Step = 7.57576%
Source Step = 15.1515%
Source Step = 22.7273%
Source Step = 30.303%
Source Step = 30.3208%
Source Step = 30.3504%
Source Step = 30.38%
Source Step = 30.4096%
Source Step = 30.4392%
Source Step = 30.4687%
vernier = 0.00146484
Source Step = 30.5131%
Source Step = 30.5575%
Source Step = 30.6019%
Source Step = 30.6463%
Source Step = 30.6907%
vernier = 0.00219727
Source Step = 30.7551%
Source Step = 30.8216%
Source Step = 30.8882%
Source Step = 30.9548%
Source Step = 31.0214%
vernier = 0.0032959
Source Step = 31.1146%
Source Step = 31.2145%
Source Step = 31.3144%
Source Step = 31.4142%
Source Step = 31.5141%
vernier = 0.00494385
Source Step = 31.6489%
Source Step = 31.7988%
Source Step = 31.9486%
Source Step = 32.0984%
Source Step = 32.2482%
vernier = 0.00741577
Source Step = 32.443%
Source Step = 32.6677%
Source Step = 32.8924%
Source Step = 33.1171%
Source Step = 33.3418%
vernier = 0.0111237
Source Step = 33.6227%
Source Step = 33.9598%
Source Step = 34.2969%
Source Step = 34.634%
Source Step = 34.9711%
vernier = 0.0166855
Source Step = 35.3756%
Source Step = 35.8812%
Source Step = 36.3868%
Source Step = 36.8924%
Source Step = 37.398%
vernier = 0.0250282
Source Step = 37.9795%
Source Step = 38.7379%
Source Step = 39.4964%
Source Step = 40.2548%
Source Step = 41.0132%
vernier = 0.0375423
Source Step = 41.8475%
Source Step = 42.9852%
Source Step = 44.1228%
Source Step = 45.2604%
Source Step = 46.3981%
vernier = 0.0563135
Source Step = 47.5926%
Source Step = 49.2991%
Source Step = 51.0056%
Source Step = 52.712%
Source Step = 54.4185%
Source Step = 56.125%
vernier = 0.0844703
Source Step = 58.6847%
Source Step = 61.2444%
Source Step = 63.8041%
Source Step = 66.3638%
Source Step = 68.9235%
vernier = 0.126705
Source Step = 72.6351%
Source Step = 76.4746%
Source Step = 80.3142%
Source Step = 84.1537%
Source Step = 87.9933%
vernier = 0.190058
Source Step = 93.3687%
Source Step = 93.4317%
Source Step = 93.5217%
Source Step = 93.6117%
Source Step = 93.7016%
Source Step = 93.7916%
Source Step = 93.8816%
Source Step = 93.9716%
Source Step = 94.0616%
Source Step = 94.1516%
Source Step = 94.2416%
Source Step = 94.3316%
Source Step = 94.4216%
Source Step = 94.5116%
Source Step = 94.6015%
Source Step = 94.6915%
Source Step = 94.7815%
Source Step = 94.8715%
Source Step = 94.9615%
Source Step = 95.0515%
Source Step = 95.1415%
Source Step = 95.2315%
Source Step = 95.3215%
Source Step = 95.4114%
Source Step = 95.5014%
Source Step = 95.5914%
Source Step = 95.6814%
Source Step = 95.7714%
Source Step = 95.8614%
Source Step = 95.9514%
Source Step = 96.0414%
Source Step = 96.1314%
Source Step = 96.2214%
Source Step = 96.3113%
Source Step = 96.4013%
Source Step = 96.4913%
Source Step = 96.5813%
Source Step = 96.6713%
Source Step = 96.7613%
Source Step = 96.8513%
Source Step = 96.9413%
Source Step = 97.0313%
Source Step = 97.1213%
Source Step = 97.2112%
Source Step = 97.3012%
Source Step = 97.3912%
Source Step = 97.4812%
Source Step = 97.5712%
Source Step = 97.6612%
Source Step = 97.7512%
Source Step = 97.8412%
Starting source stepping with srcstepmethod=1
Source Step = 3.0303%
Source Step = 33.3333%
Source Step = 63.6364%
Source Step = 93.9394%
Source Step = 99.5682%
Source Step = 99.9618%
Source Step = 99.9914%
Source Step = 100%
Source stepping failed

Pseudo transient terminated at 102.597 s, solution accepted ready or not!

Date: Sun Aug 16 21:57:26 2020
Total elapsed time: 33.083 seconds.

tnom = 27
temp = 27
method = modified trap
totiter = 63884
traniter = 11584
tranpoints = 5342
accept = 5246
rejected = 169
matrix size = 191
fillins = 527
solver = Normal
Thread vector: 42.6/22.6[4] 12.0/5.4[4] 9.1/3.8[4] 2.1/3.7[1]  2592/500
Matrix Compiler1: 48.57 KB object code size  21.3/10.5/[6.3]
Matrix Compiler2: 25.28 KB object code size  9.0/9.2/[2.9]

